Circuit: * C:\Users\andyv\Google Drive\source\repos\MLoptLVDS180\opti_w_bey\lvds_rcvr_testbed_v3.asc

Ignoring BSIM parameter XL
Ignoring BSIM parameter XW
Ignoring BSIM parameter ACM
Ignoring BSIM parameter LDIF
Ignoring BSIM parameter HDIF
Ignoring BSIM parameter CTA
Ignoring BSIM parameter CTP
Ignoring BSIM parameter PTA
Ignoring BSIM parameter PTP
Ignoring BSIM parameter XL
Ignoring BSIM parameter XW
Ignoring BSIM parameter CTA
Ignoring BSIM parameter CTP
Ignoring BSIM parameter PTA
Ignoring BSIM parameter PTP
WARNING: Node X1:STG1_OUT is floating.

WARNING: Less than two connections to node IN.  This node is used by E1.
WARNING: Less than two connections to node X1:STG1_OUT.  This node is used by C:X1:5.
Warning: Pd = 0 is less than W.
Warning: Ps = 0 is less than W.
Warning: Pd = 0 is less than W.
Warning: Ps = 0 is less than W.
Warning: Pd = 0 is less than W.
Warning: Ps = 0 is less than W.
Warning: Pd = 0 is less than W.
Warning: Ps = 0 is less than W.
Warning: Pd = 0 is less than W.
Warning: Ps = 0 is less than W.
Warning: Pd = 0 is less than W.
Warning: Ps = 0 is less than W.
Warning: Pd = 0 is less than W.
Warning: Ps = 0 is less than W.
Warning: Pd = 0 is less than W.
Warning: Ps = 0 is less than W.
Warning: Pd = 0 is less than W.
Warning: Ps = 0 is less than W.
Warning: Pd = 0 is less than W.
Warning: Ps = 0 is less than W.
Warning: Pd = 0 is less than W.
Warning: Ps = 0 is less than W.
Warning: Pd = 0 is less than W.
Warning: Ps = 0 is less than W.
Warning: Pd = 0 is less than W.
Warning: Ps = 0 is less than W.
Direct Newton iteration for .op point succeeded.

tpdr=3.47801e-010 FROM 9e-010 TO 1.2478e-009
tpdf=3.64163e-010 FROM 4.5e-009 TO 4.86416e-009
tpd: (tpdr+tpdf)/2=3.55982e-010
tdrf: tpdr-tpdf=-1.63621e-011
trise=7.34656e-011 FROM 1.20852e-009 TO 1.28199e-009
tfall=7.35539e-011 FROM 4.82408e-009 TO 4.89764e-009


Date: Tue Jan 14 14:18:46 2020
Total elapsed time: 0.127 seconds.

tnom = 27
temp = 27
method = modified trap
totiter = 2130
traniter = 2117
tranpoints = 1059
accept = 1057
rejected = 2
matrix size = 19
fillins = 9
solver = Normal
Matrix Compiler1: 1.68 KB object code size  0.6/0.4/[0.2]
Matrix Compiler2: 1.86 KB object code size  0.3/0.4/[0.2]

