Circuit: * C:\Users\andyv\Google Drive\source\repos\MLoptLVDS180\ltspice\lvds_rcvr_v1.asc

Instance "m2": Length shorter than recommended for a level 1 MOSFET.
Instance "m2": Width narrower than recommended for a level 1 MOSFET.
Instance "m1": Length shorter than recommended for a level 1 MOSFET.
Instance "m1": Width narrower than recommended for a level 1 MOSFET.
Direct Newton iteration for .op point succeeded.

Date: Tue Dec 10 10:38:30 2019
Total elapsed time: 0.091 seconds.

tnom = 27
temp = 27
method = modified trap
totiter = 2451
traniter = 2445
tranpoints = 1222
accept = 1179
rejected = 43
matrix size = 5
fillins = 0
solver = Normal
Matrix Compiler1:       8 opcodes  0.0/[0.0]/0.0
Matrix Compiler2:      28 opcodes  0.1/[0.1]/0.1

