Questionable use of curly braces in ".measure tpd param={(tpdr+tpdf)/2}"
    Error: undefined symbol in: "([tpdr]+tpdf)/2"
Questionable use of curly braces in ".measure drf param={tpdr-tpdf}"
    Error: undefined symbol in: "[tpdr]-tpdf"
Circuit: * C:\Users\andyv\Google Drive\source\repos\MLoptLVDS180\ltspice\lvds_rcvr_testbed_v2.asc

WARNING: Less than two connections to node IN.  This node is used by E1.
Instance "m:x1:18": Length shorter than recommended for a level 1 MOSFET.
Instance "m:x1:16": Length shorter than recommended for a level 1 MOSFET.
Instance "m:x1:16": Width narrower than recommended for a level 1 MOSFET.
Instance "m:x1:15": Length shorter than recommended for a level 1 MOSFET.
Instance "m:x1:15": Width narrower than recommended for a level 1 MOSFET.
Instance "m:x1:10": Length shorter than recommended for a level 1 MOSFET.
Instance "m:x1:10": Width narrower than recommended for a level 1 MOSFET.
Instance "m:x1:7": Length shorter than recommended for a level 1 MOSFET.
Instance "m:x1:7": Width narrower than recommended for a level 1 MOSFET.
Instance "m:x1:6": Length shorter than recommended for a level 1 MOSFET.
Instance "m:x1:6": Width narrower than recommended for a level 1 MOSFET.
Instance "m:x1:17": Length shorter than recommended for a level 1 MOSFET.
Instance "m:x1:14": Length shorter than recommended for a level 1 MOSFET.
Instance "m:x1:14": Width narrower than recommended for a level 1 MOSFET.
Instance "m:x1:13": Length shorter than recommended for a level 1 MOSFET.
Instance "m:x1:13": Width narrower than recommended for a level 1 MOSFET.
Instance "m:x1:12": Length shorter than recommended for a level 1 MOSFET.
Instance "m:x1:12": Width narrower than recommended for a level 1 MOSFET.
Instance "m:x1:11": Length shorter than recommended for a level 1 MOSFET.
Instance "m:x1:11": Width narrower than recommended for a level 1 MOSFET.
Instance "m:x1:9": Length shorter than recommended for a level 1 MOSFET.
Instance "m:x1:9": Width narrower than recommended for a level 1 MOSFET.
Instance "m:x1:8": Length shorter than recommended for a level 1 MOSFET.
Instance "m:x1:8": Width narrower than recommended for a level 1 MOSFET.
Instance "m:x1:5": Length shorter than recommended for a level 1 MOSFET.
Instance "m:x1:5": Width narrower than recommended for a level 1 MOSFET.
Instance "m:x1:4": Length shorter than recommended for a level 1 MOSFET.
Instance "m:x1:3": Length shorter than recommended for a level 1 MOSFET.
Direct Newton iteration for .op point succeeded.

tpdr=5.03284e-011 FROM 3e-011 TO 8.03284e-011
tpdf=4.67684e-011 FROM 1.5e-010 TO 1.96768e-010
tpd: ((tpdr+tpdf)/2)=4.85484e-011
drf: (tpdr-tpdf)=3.55994e-012
trise=3.36522e-011 FROM 5.89198e-011 TO 9.2572e-011
tfall=3.377e-011 FROM 1.76159e-010 TO 2.09929e-010


Date: Fri Jan 03 10:16:01 2020
Total elapsed time: 0.109 seconds.

tnom = 27
temp = 27
method = modified trap
totiter = 2197
traniter = 2148
tranpoints = 1075
accept = 1068
rejected = 7
matrix size = 17
fillins = 9
solver = Normal
Matrix Compiler1: 1.61 KB object code size  0.7/0.2/[0.1]
Matrix Compiler2: off  [0.2]/0.3/0.2

