WARNING: Can't resolve .param working_dir=pool_dir_1
Circuit: * C:\Users\andyv\Google Drive\source\repos\MLoptLVDS180\opti_w_bey2\lvds_rcvr_testbed_v3.asc

WARNING: Can't resolve .param working_dir=pool_dir_1
Ignoring BSIM parameter XL
Ignoring BSIM parameter XW
Ignoring BSIM parameter ACM
Ignoring BSIM parameter LDIF
Ignoring BSIM parameter HDIF
Ignoring BSIM parameter CTA
Ignoring BSIM parameter CTP
Ignoring BSIM parameter PTA
Ignoring BSIM parameter PTP
Ignoring BSIM parameter XL
Ignoring BSIM parameter XW
Ignoring BSIM parameter CTA
Ignoring BSIM parameter CTP
Ignoring BSIM parameter PTA
Ignoring BSIM parameter PTP
WARNING: Node X1:STG1_OUT is floating.

WARNING: Less than two connections to node IN.  This node is used by E1.
WARNING: Less than two connections to node X1:STG1_OUT.  This node is used by C:X1:5.
Warning: Pd = 0 is less than W.
Warning: Ps = 0 is less than W.
Warning: Pd = 0 is less than W.
Warning: Ps = 0 is less than W.
Warning: Pd = 0 is less than W.
Warning: Ps = 0 is less than W.
Warning: Pd = 0 is less than W.
Warning: Ps = 0 is less than W.
Warning: Pd = 0 is less than W.
Warning: Ps = 0 is less than W.
Warning: Pd = 0 is less than W.
Warning: Ps = 0 is less than W.
Warning: Pd = 0 is less than W.
Warning: Ps = 0 is less than W.
Warning: Pd = 0 is less than W.
Warning: Ps = 0 is less than W.
Warning: Pd = 0 is less than W.
Warning: Ps = 0 is less than W.
Warning: Pd = 0 is less than W.
Warning: Ps = 0 is less than W.
Warning: Pd = 0 is less than W.
Warning: Ps = 0 is less than W.
Warning: Pd = 0 is less than W.
Warning: Ps = 0 is less than W.
Warning: Pd = 0 is less than W.
Warning: Ps = 0 is less than W.
Direct Newton iteration for .op point succeeded.

tpdr=3.93438e-010 FROM 9e-010 TO 1.29344e-009
tpdf=2.34242e-010 FROM 4.5e-009 TO 4.73424e-009
tpd: (tpdr+tpdf)/2=3.1384e-010
tdrf: tpdr-tpdf=1.59196e-010
trise=6.20536e-011 FROM 1.26072e-009 TO 1.32277e-009
tfall=6.04762e-011 FROM 4.70103e-009 TO 4.76151e-009


Date: Thu Jan 16 12:20:10 2020
Total elapsed time: 0.145 seconds.

tnom = 27
temp = 27
method = modified trap
totiter = 2127
traniter = 2116
tranpoints = 1059
accept = 1057
rejected = 2
matrix size = 19
fillins = 9
solver = Normal
Matrix Compiler1: 1.68 KB object code size  0.7/0.7/[0.2]
Matrix Compiler2: 1.86 KB object code size  0.4/1.2/[0.3]

